.MODEL 2N7000   NMOS (LEVEL=3   RS=0.205           NSUB=1.0E15
+DELTA=0.1      KAPPA=0.0506    TPG=1              CGDO=3.1716E-9
+RD=0.239       VTO=1.000       VMAX=1.0E7         ETA=0.0223089
+NFS=6.6E10     TOX=1.0E-7      LD=1.698E-9        UO=862.425
+XJ=6.4666E-7   THETA=1.0E-5    CGSO=9.09E-9       L=2.5E-6
+W=0.8E-2)
