*SRC=1N4007;DI_1N4007;Diodes;Si;  1.00kV  1.00A  3.00us
.MODEL 1N4007 D( IS=76.9p RS=42.0m BV=1000 IBV=5.00u
+ CJO=26.5p  M=0.333 N=1.45 TT=4.32u )
